Version 4
SHEET 1 1748 692
WIRE -480 -848 -576 -848
WIRE -80 -848 -480 -848
WIRE 144 -848 -80 -848
WIRE -576 -816 -576 -848
WIRE -768 -800 -768 -832
WIRE -80 -752 -80 -848
WIRE 144 -736 144 -848
WIRE -576 -720 -576 -736
WIRE -768 -704 -768 -720
WIRE -80 -608 -80 -672
WIRE 144 -560 144 -656
WIRE -80 -512 -80 -528
WIRE -80 -512 -208 -512
WIRE 80 -512 -80 -512
WIRE -80 -496 -80 -512
WIRE -208 -480 -208 -512
WIRE -208 -384 -208 -400
WIRE 144 -384 144 -464
WIRE 432 -384 144 -384
WIRE 448 -384 432 -384
WIRE -80 -368 -80 -416
WIRE 144 -352 144 -384
WIRE -80 -272 -80 -288
WIRE 144 -256 144 -272
WIRE 160 112 160 80
WIRE 576 112 576 80
WIRE -288 160 -288 144
WIRE 160 208 160 192
WIRE 576 208 576 192
WIRE -288 256 -288 240
WIRE -288 352 -288 336
WIRE -528 544 -528 496
WIRE 16 560 16 512
WIRE 544 560 544 512
WIRE -528 640 -528 624
WIRE 16 656 16 640
WIRE 544 656 544 640
FLAG -288 352 0
FLAG -288 144 V_percent
FLAG 160 208 0
FLAG 160 80 Ru
FLAG 576 208 0
FLAG 576 80 Rl
FLAG -480 -848 Vin
FLAG -528 640 0
FLAG -528 496 g_22
FLAG 16 656 0
FLAG 16 512 g_15
FLAG 544 656 0
FLAG 544 512 g_3
FLAG -576 -720 0
FLAG -768 -832 Vmax
FLAG -768 -704 0
FLAG -80 -272 0
FLAG 432 -384 Vout
FLAG 144 -256 0
FLAG -208 -384 0
SYMBOL voltage -288 144 R0
WINDOW 0 -71 44 Left 2
WINDOW 3 -350 71 Left 2
WINDOW 123 0 0 Left 0
WINDOW 39 0 0 Left 0
SYMATTR InstName V1
SYMATTR Value PULSE(0 1 0 1m 1m 10 20)
SYMBOL res -96 -624 R0
SYMATTR InstName R1
SYMATTR Value R=V(Ru)
SYMBOL res -96 -512 R0
SYMATTR InstName R2
SYMATTR Value R=V(Rl)
SYMBOL bv 160 96 R0
SYMATTR InstName B1
SYMATTR Value V={Rpot}*(1-V(V_percent))
SYMBOL bv 576 96 R0
SYMATTR InstName B2
SYMATTR Value V={Rpot}*(V(V_percent))
SYMBOL voltage -288 240 R0
WINDOW 0 34 44 Left 2
WINDOW 3 33 73 Left 2
WINDOW 123 0 0 Left 0
WINDOW 39 0 0 Left 0
SYMATTR InstName V3
SYMATTR Value 1n
SYMBOL bv -528 528 R0
SYMATTR InstName B3
SYMATTR Value V=pow({V(V_percent)}, 2.2)*{V(Vmax)}
SYMBOL bv 16 544 R0
SYMATTR InstName B4
SYMATTR Value V=pow({V(V_percent)}, 1.5)*{V(Vmax)}
SYMBOL bv 544 544 R0
SYMATTR InstName B5
SYMATTR Value V=pow({V(V_percent)}, 3)*{V(Vmax)}
SYMBOL voltage -576 -832 R0
WINDOW 0 33 34 Left 2
WINDOW 3 36 61 Left 2
WINDOW 123 0 0 Left 0
WINDOW 39 0 0 Left 0
SYMATTR InstName V4
SYMATTR Value 2.5
SYMBOL res -96 -768 R0
WINDOW 3 32 69 Left 2
SYMATTR InstName R4
SYMATTR Value 330k
SYMBOL voltage -768 -816 R0
WINDOW 0 35 38 Left 2
WINDOW 3 40 65 Left 2
WINDOW 123 0 0 Left 0
WINDOW 39 0 0 Left 0
SYMATTR InstName V2
SYMATTR Value 300m
SYMBOL npn 80 -560 R0
SYMATTR InstName Q1
SYMATTR Value 2N3904
SYMBOL res -96 -384 R0
SYMATTR InstName R5
SYMATTR Value 60.4k
SYMBOL res 128 -752 R0
SYMATTR InstName R3
SYMATTR Value 330k
SYMBOL res 128 -368 R0
SYMATTR InstName R6
SYMATTR Value 330k
SYMBOL res -224 -496 R0
SYMATTR InstName R7
SYMATTR Value 1Meg
TEXT -168 152 Left 2 !.param Rpot=100k
TEXT -840 -64 Left 2 !.tran 0 1m 0 100n
