Version 4
SHEET 1 908 680
WIRE 192 144 80 144
WIRE 336 144 256 144
WIRE 512 144 336 144
WIRE 624 144 512 144
WIRE 736 144 624 144
WIRE 832 144 736 144
WIRE 864 144 832 144
WIRE 336 160 336 144
WIRE 80 176 80 144
WIRE 512 176 512 144
WIRE 624 176 624 144
WIRE 736 176 736 144
WIRE 832 176 832 144
WIRE 736 256 736 240
WIRE 832 256 832 240
WIRE 80 272 80 256
WIRE 336 272 336 240
WIRE 336 272 272 272
WIRE 384 272 336 272
WIRE 272 288 272 272
WIRE 384 288 384 272
WIRE 272 368 272 352
WIRE 384 368 384 352
WIRE 384 368 272 368
WIRE 384 384 384 368
FLAG 736 256 0
FLAG 624 240 0
FLAG 512 240 0
FLAG 80 272 0
FLAG 384 384 0
FLAG 832 256 0
SYMBOL FerriteBead 224 144 R90
WINDOW 0 -16 0 VBottom 2
SYMATTR InstName L1
SYMATTR Value 88.4n
SYMATTR SpiceLine Rser=4m Rpar=37 Cpar=1.2p
SYMBOL cap 720 176 R0
SYMATTR InstName C1
SYMATTR Value 72.6n
SYMATTR SpiceLine Rser=25.1m Lser=381.7p
SYMBOL cap 608 176 R0
WINDOW 0 39 16 Left 2
WINDOW 3 39 45 Left 2
SYMATTR InstName C2
SYMATTR Value 4.24µ
SYMATTR SpiceLine Rser=2.9m Lser=1.1n
SYMBOL cap 496 176 R0
WINDOW 0 39 16 Left 2
WINDOW 3 39 45 Left 2
SYMATTR InstName C3
SYMATTR Value 4.24µ
SYMATTR SpiceLine Rser=2.9m Lser=1.1n
SYMBOL voltage 80 160 R0
SYMATTR InstName V1
SYMATTR Value AC 1
SYMBOL cap 256 288 R0
WINDOW 0 39 16 Left 2
WINDOW 3 39 45 Left 2
SYMATTR InstName C4
SYMATTR Value 4.24µ
SYMATTR SpiceLine Rser=2.9m Lser=1.1n
SYMBOL cap 368 288 R0
WINDOW 0 39 16 Left 2
WINDOW 3 39 45 Left 2
SYMATTR InstName C5
SYMATTR Value 4.24µ
SYMATTR SpiceLine Rser=2.9m Lser=1.1n
SYMBOL res 320 144 R0
SYMATTR InstName R1
SYMATTR Value 100m
SYMBOL cap 816 176 R0
SYMATTR InstName C6
SYMATTR Value 72.6n
SYMATTR SpiceLine Rser=25.1m Lser=381.7p
TEXT -376 352 Left 2 !.ac dec 1000 10 10G
